energy: -21.042845375123 gnorm: 0.000517595154 xtb: 6.4.1 (bd6e46d)
 OpenBabel06282315373D

 13 12  0  0  1  0  0  0  0  0999 V2000
    1.5005   -0.8821    0.5071 O   0  0  0  0  0  0  0  0  0  0  0  0
    1.0776    0.8403   -0.8432 O   0  0  0  0  0  0  0  0  0  0  0  0
   -1.4158    1.1405    0.3206 N   0  0  0  0  0  0  0  0  0  0  0  0
   -0.7470   -0.1424    0.3948 C   0  0  1  0  0  0  0  0  0  0  0  0
   -1.3643   -1.2368   -0.4986 C   0  0  0  0  0  0  0  0  0  0  0  0
    0.6935    0.0254   -0.0486 C   0  0  0  0  0  0  0  0  0  0  0  0
   -0.7548   -0.4870    1.4358 H   0  0  0  0  0  0  0  0  0  0  0  0
   -0.8174   -2.1694   -0.3873 H   0  0  0  0  0  0  0  0  0  0  0  0
   -2.4000   -1.4025   -0.2096 H   0  0  0  0  0  0  0  0  0  0  0  0
   -1.3337   -0.9298   -1.5427 H   0  0  0  0  0  0  0  0  0  0  0  0
   -2.4175    1.0199    0.2250 H   0  0  0  0  0  0  0  0  0  0  0  0
   -1.0741    1.6548   -0.4854 H   0  0  0  0  0  0  0  0  0  0  0  0
    2.4087   -0.7711    0.1819 H   0  0  0  0  0  0  0  0  0  0  0  0
  2  6  2  0  0  0  0
  3  4  1  0  0  0  0
  4  7  1  1  0  0  0
  5  8  1  0  0  0  0
  5  9  1  0  0  0  0
  5  4  1  0  0  0  0
  6  4  1  0  0  0  0
  6  1  1  0  0  0  0
 10  5  1  0  0  0  0
 11  3  1  0  0  0  0
 12  3  1  0  0  0  0
 13  1  1  0  0  0  0
M  END
