98
Coordinates from ORCA-job orca
  C   0.43489462982316     -1.60031538497230     -3.98608924417697
  H   -0.27648246534858     -2.38002434061238     -4.26418543624154
  H   0.28940570934611     -0.75587045116240     -4.66229030838846
  H   1.44126874101476     -1.99063437084018     -4.14792828008717
  C   0.23819452256565     -1.17625227298165     -2.52265150433979
  C   -1.23286756612726     -0.75024914836160     -2.38869504021878
  C   1.21759391051018     -0.01593724697312     -2.27902652412911
  C   0.58233906686723     -2.40534403737489     -1.66399710556153
  P   -1.72237114561197      0.09462317302221     -0.82222206219014
  H   0.14458730288287     -3.29606459299482     -2.11903208321718
  H   1.65926540492453     -2.55752721518545     -1.73848180919772
  P   1.40838328518759      0.64582693483002     -0.54743166343240
  H   2.20520235234158     -0.30868770060441     -2.64306767533689
  H   0.91668119929138      0.82553577152350     -2.90581032934356
  P   0.13574396548616     -2.38800995146931      0.13636641623071
  H   -1.50651529529025     -0.12010464652532     -3.23749141382892
  H   -1.86019504830103     -1.63916989647569     -2.47684332945792
  C   -1.94363305672311      1.86647052533509     -1.25943413048355
  C   -3.49228510677394     -0.36345877658050     -0.65918180845743
  C   3.18766544987517      0.34795624122780     -0.17774081642212
  C   1.49891562997663      2.45485463100067     -0.86544536063762
  C   -1.17541687868772     -3.71828418417650      0.30559976712954
  C   1.62253672605818     -3.22165019048198      0.91606177050720
  Ru  -0.30245934412453     -0.23051059368968      0.89347171298314
  C   -1.48572899000373      2.44627942988981     -2.43653779287672
  C   -1.67215066547391      3.80215837115302     -2.67611427305668
  C   -2.32243341681319      4.59290765065180     -1.74364845527557
  C   -2.78985175377839      4.02172287163997     -0.56624639391495
  C   -2.59951851767345      2.67159661824579     -0.32678929130118
  H   -2.46770262031827      5.64872250150482     -1.93137039087639
  H   -2.97537774394906      2.24363699974848      0.59589905019645
  H   -3.30571470659435      4.62916168765392      0.16608915011997
  H   -1.30389402500256      4.23615847080320     -3.59650095050268
  H   -0.97895995150222      1.85903339109182     -3.18997266729856
  C   -4.29896112324478     -0.38233260710516     -1.79852834976180
  C   -5.64631332839117     -0.69045312050317     -1.70099971291990
  C   -6.21002002608988     -0.96727737234755     -0.46103722341880
  C   -5.41964999928961     -0.92970821120379      0.67720478483592
  C   -4.06664358033677     -0.62953855002876      0.57772001110988
  H   -7.26263813282578     -1.20695297181863     -0.38514012862856
  H   -3.45103933764913     -0.61105583559394      1.46724759169391
  H   -5.85233266351268     -1.13757583254558      1.64719305835293
  H   -6.25869504397164     -0.70953028248492     -2.59305081685556
  H   -3.88381133121131     -0.15217823014078     -2.77237839339829
  C   3.89588580610233      1.28580084070121      0.57470963386385
  C   5.21328635074149      1.05498465157298      0.93871970897226
  C   5.85117532354050     -0.11727483674320      0.55452125594179
  C   5.16196084645143     -1.05134293503093     -0.20378060890818
  C   3.84200579206787     -0.81811662120256     -0.56697100250498
  H   6.88004487514328     -0.29665413777846      0.83765569269561
  H   3.33937678784653     -1.56201366697009     -1.17043477557736
  H   5.64918603314740     -1.96403086914176     -0.52129974316011
  H   5.74384676092565      1.79646658736815      1.52184426596265
  H   3.42075596379945      2.20754651123066      0.88629382322910
  C   2.27901682369899      2.92083397954007     -1.92629189985180
  C   2.39579543036275      4.27846231628632     -2.17424917444072
  C   1.74354177316283      5.19414858834671     -1.35670596102521
  C   0.97943687852919      4.74136193017783     -0.29363867586424
  C   0.85980320096894      3.37874378637558     -0.05114196788323
  H   1.83462709034730      6.25529656908322     -1.54898279717762
  H   0.25511786870776      3.04825903362108      0.78188098656873
  H   0.46730452729788      5.44556257398823      0.34865569465364
  H   3.00149409610379      4.62303506195585     -3.00234388283383
  H   2.81114558978663      2.22474555512803     -2.56362528136078
  C   -1.91092863404280     -3.65540974966692      1.64208343112914
  C   -2.20497113529715     -3.77563035739876     -0.81845990920633
  H   -1.25458164359277     -3.53226254075568      2.49998196581035
  H   -2.61923806648450     -2.82878347118780      1.65292476443199
  H   -2.47401395912795     -4.57963179266288      1.78493324664484
  H   -2.86573538784974     -4.62714978032937     -0.64610358271685
  H   -2.83426671610671     -2.88657478342727     -0.83770302768662
  H   -1.76677467687456     -3.91190856305606     -1.80580159284327
  H   -0.60305201089036     -4.65117387376232      0.27084122057279
  C   1.36189783535701     -3.69389938972950      2.34450031615227
  C   2.19146275586876     -4.38686817334607      0.10676436441129
  H   2.31236290960901     -3.95213319432695      2.81454903813408
  H   0.88181649455348     -2.94230072907196      2.96420335460679
  H   0.74297692163098     -4.59180128728859      2.35887254706880
  H   3.02062174341532     -4.83237774276776      0.65954871533139
  H   1.45392006672620     -5.17484799348950     -0.05321055601417
  H   2.58330556481412     -4.09219806752155     -0.86483751340309
  H   2.37640826529281     -2.43078348770318      0.95100286715068
  H   -0.47388742002111      1.42104782936844      1.43153965351629
  H   -1.13509568170203      0.98682790525817      1.77198871533647
  O   0.86630408062675     -0.45233989672511      2.78296806509315  
  H   -1.47127795139522     -0.93281293795591      1.72799191561135
  C   2.25215868788590     -0.19676822387387      3.02273796615791
  C   2.48203323183661     -0.64532376902110      4.45048845777576
  H   2.83859346223416     -0.74705939237244      2.28933044550176
  H   2.45921719288182      0.87085026152920      2.90093752930126
  H   2.62446219234400     -1.72673077821292      4.49725747303989
  H   3.35711307207009     -0.17016464877391      4.89205489107852
  C   1.17534736774300     -0.23252032985746      5.12015384682994
  C   0.13921844040766     -0.45664304745613      4.02496383953261
  H   0.95104948195063     -0.81150326110919      6.01490938598488
  H   1.21196393456501      0.82005535987883      5.40578145815488
  H   -0.36542534754468     -1.42091736710336      4.11596855864145
  H   -0.62253610514663      0.32378449732255      4.00535206604498
